   634
 Generated by Multiwfn
C      -6.61564400      0.11814800      3.24978500
C      -5.26446900     -0.35748600      3.13298200
C      -4.73379500     -0.60529100      1.84406900
C      -5.40930000     -0.11496100      0.69790500
C      -6.65404000      0.58408000      0.85112400
C      -7.29437900      0.57156900      2.14946700
C      -7.21473500      1.17281500     -0.28760500
C      -6.68219200      0.95221900     -1.59165000
C      -5.49817200      0.16804900     -1.73382200
C      -4.83710900     -0.31724000     -0.57941600
C      -4.98485000     -0.07049200     -3.02816700
C      -5.61454300      0.47285200     -4.17229400
C      -6.75076700      1.32324900     -4.02023700
C      -7.27392100      1.50480400     -2.73331900
C      -7.29374600      1.97805600     -5.17080100
C      -6.61559000      1.91146100     -6.37177200
C      -5.44910900      1.11223100     -6.50491100
C      -5.06059400      0.25888700     -5.46674600
C      -3.75971100     -0.79798500     -3.16769200
C      -3.31559900     -1.17286200     -4.46300100
C      -4.05868100     -0.78637500     -5.60749100
C      -3.56434300     -0.95865800     -0.71066200
C      -3.04164500     -1.18200200     -2.02026700
C      -2.85286100     -1.37330100      0.43480400
C      -3.50136900     -1.32436600      1.70880600
C      -3.03141900     -2.02926300      2.82868400
C      -3.50544900     -1.74970500      4.10625600
C      -4.46527100     -0.70987300      4.25544100
C      -4.42264900     -0.01583500      5.49940100
C      -3.75454100     -0.53820300      6.58339300
C      -3.24083800     -1.87349000      6.59187000
C      -3.07019800     -2.45199800      5.30109600
C      -2.57136600     -3.75202000      5.21158600
C      -2.27610300     -4.50252100      6.33561300
C      -2.43204300     -3.93814100      7.61387600
C      -2.91634100     -2.63510800      7.74446000
C      -1.78224200     -1.84078600     -2.18676000
C      -0.99146800     -2.01088400     -1.01682800
C      -1.47849000     -1.76794400      0.26375600
C      -2.14940500     -1.99798200     -4.58793400
C      -1.37258200     -2.25175500     -3.44190000
C      -3.81874400     -1.50448700     -6.79181000
C      -2.68571300     -2.36832700     -6.87495700
C      -1.80359200     -2.55151900     -5.83384300
C      -7.34314900     -0.12674700      4.56015000
C      -8.56694000      0.76503900      4.73352900
C      -9.46598100      0.57157800      3.51955800
C      -8.73938600      1.01436800      2.25011100
C      -7.11846000      2.67015800     -7.58277500
C      -8.61279200      2.97104700     -7.50181300
C      -8.90360000      3.68352400     -6.18788600
C      -8.57447200      2.76823100     -5.00898700
C      -2.05331600     -4.74497800      8.83749400
C      -1.98564900     -6.25261100      8.59190600
C      -1.17505400     -6.54665600      7.33489100
C      -1.88899000     -5.94621800      6.12938200
N      -2.68601300     -2.93637100     -8.12324300
C      -3.80412100     -2.52779500     -8.80453100
C      -4.51212500     -1.64961200     -8.03727100
C      -0.42448000     -1.85157700      1.22868600
C       0.77384600     -2.15467600      0.67127700
S       0.69377500     -2.39227300     -1.03573700
S      -3.57805600      0.69625300      7.87753800
C      -4.41944800      1.89880800      6.85070000
C      -4.82220900      1.37617900      5.69273400
H      -2.04152400     -3.63964200     -8.43939400
O      -2.10617000      1.07383500      7.87490100
C      -3.19263600     -2.07302400      9.12086000
C      -1.93960700     -1.50737700      9.80420700
C      -2.23920700     -0.91566000     11.19370700
C      -3.20219000      0.25422600     11.14797000
C      -2.67837500      1.58995100     11.63913200
C      -1.56760600      2.16671700     10.74735200
C      -2.06462300      3.24626400      9.79733000
C      -0.94389600      4.02884200      9.14492800
C      -1.42433100      4.97466600      8.04054600
C      -1.67413500      4.22421400      6.72973500
C      -2.32911900      5.10474300      5.65967800
C      -1.35381700      6.11158600      5.04033200
C      -2.00554500      6.90168700      3.90573900
C      -4.51912700      1.35943600     -7.66421400
C      -3.69973400      2.63656400     -7.37362600
C      -2.02481800      4.05501000    -10.29530000
C      -2.62097500      4.91111200    -11.41498900
C      -1.56983100      5.80833800    -12.08126700
C      -2.20484800      6.97879500    -12.84552700
C      -2.76278600      8.03241000    -11.88357300
C      -3.29875200      9.26998500    -12.60852300
C      -4.00277600     10.23364700    -11.63348700
C      -4.10638100      6.73357800     -3.71899200
C      -3.45884100      7.62719900     -4.57126300
C      -2.07187300      7.66082800     -4.66486500
C      -1.32296800      6.89133500     -3.73570700
C      -1.96218200      5.95692600     -2.86456300
C      -3.37788900      5.84020400     -2.93476600
C      -1.09230500      5.22718200     -1.96851700
C       0.26759700      5.28345300     -2.12464800
C       0.91351300      6.19837400     -2.99312100
C       0.08489700      7.09029900     -3.69783200
C      -1.39488500      8.55861700     -5.58853600
C      -0.13647700      9.04205800     -5.17605700
C       0.65231600      8.23729200     -4.29634100
C       2.02768200      8.50214300     -4.15221400
C       2.87011800      7.43903500     -3.72434100
C       2.32098700      6.30565300     -3.14649500
C       0.43029700     10.22827100     -5.72658200
C       1.61826400     10.78305600     -5.08299000
C       2.46052600      9.87427800     -4.39172700
C      -0.18946500     10.77689600     -6.83033600
C      -1.31229500     10.16247600     -7.40623500
C      -1.92626000      9.00248100     -6.84143400
C      -2.86667800      8.29549900     -7.67403800
N      -3.31176900      8.73229200     -8.83303900
C      -2.85706700      9.92126400     -9.28953600
C      -1.86403600     10.62152900     -8.61501500
C       3.60785400     10.38107700     -3.77834900
C       3.95834200     11.71946800     -3.84693600
C       3.08949200     12.63209200     -4.45377900
C       1.90557300     12.16579200     -5.04436100
C       3.43453800     14.10702000     -4.44215600
C       4.44718400     14.47822800     -3.35876000
C       5.66325400     13.56248300     -3.46110300
C       5.23877400     12.12863000     -3.15360800
C       3.15582600      5.13178300     -2.68563300
C       4.65309900      5.23486600     -2.98930900
C       4.89107800      6.06342600     -4.24723400
C       4.35898100      7.47429200     -3.99253900
C      -5.61951500      6.77978300     -3.74907600
C      -6.29384500      5.80073300     -2.79299900
C      -5.51612600      4.49075100     -2.81203800
C      -4.12666300      4.73329600     -2.22591200
O      -1.49134800     11.70912300     -9.33326800
C      -2.24590500     11.70153200    -10.46974700
C      -3.09609600     10.63825600    -10.51141200
C      -3.25018200      6.84855100     -7.43754000
C      -4.72649800      6.58307500     -7.64842000
C      -7.34671000      7.72341800     -8.69924100
C      -6.87607200      9.11746900     -9.10702800
C       0.86742600     13.19212400     -5.45844300
C       1.18697400     13.94526000     -6.75151100
S       0.13928700     15.45028000     -6.79168900
C       1.02468100     16.34041400     -8.12521300
C       0.49194700     17.76795200     -8.18738500
C       1.20948200     18.57657600     -9.27421800
C       0.68550000     20.01448800     -9.32987700
C      -1.52558900      4.44575200     -0.74090600
C      -1.42612900      2.93377900     -0.94263400
S      -0.81843800      2.05930700      0.54878000
C      -2.28710700      2.26903700      1.63497400
C      -1.82770000      2.25232400      3.08741800
C      -1.10880400      0.94888500      3.42618100
C      -0.65793900      0.88270600      4.88099300
C      -0.02073200     -0.45571800      5.19088100
C      -0.07771800     -0.84141800      6.64048400
C       0.69350500     -2.11445300      6.94248900
O       0.21869000      2.97851700      1.13304200
C       1.39763700     20.82356800    -10.42256100
O       0.50846400     16.18662600     -5.53410400
O      -8.29041400      1.99039400     -0.14982900
O       0.87479400     22.13584100    -10.51168800
O      -3.23431100      3.47986700      9.61974600
O       0.48058000     -1.15642300      4.33761300
O      -4.34913100      0.12600500     10.78760200
O      -5.14703600      5.60333900     -8.22329500
O      -5.50043800      7.50927100     -7.09706900
C      -6.92449800      7.38608700     -7.26966700
O      -2.67539700      2.82498100     -8.32882000
C      -3.12712600      3.23829700     -9.61500700
H      -8.16540800      2.11000200     -2.61524000
H      -2.25756000     -2.77279900      2.69529100
H      -2.47274100     -4.21667200      4.23737900
H      -0.45730200     -2.82394800     -3.54212500
H      -0.91341000     -3.15201800     -5.93783200
H      -7.66595100     -1.17686800      4.56132700
H      -6.68161400     -0.00568900      5.41734100
H      -8.26329900      1.81379300      4.81712000
H      -9.09638300      0.48827900      5.64985000
H     -10.38525400      1.15507400      3.62373900
H      -9.74722600     -0.48414500      3.44123000
H      -8.76498400      2.10851200      2.19304800
H      -9.29701400      0.63361200      1.39090300
H      -6.57025200      3.61513200     -7.67428000
H      -6.92661700      2.09245800     -8.49134100
H      -9.18721400      2.04045600     -7.55745300
H      -8.90357500      3.60133700     -8.34715600
H      -9.95562200      3.97688700     -6.13253500
H      -8.29876400      4.59501900     -6.12812400
H      -9.39771000      2.05795900     -4.86201500
H      -8.51989800      3.38563400     -4.10722300
H      -1.06978000     -4.39973600      9.17517100
H      -2.75427600     -4.56207900      9.65637100
H      -2.99724200     -6.65675700      8.47815000
H      -1.53064900     -6.73555900      9.46186600
H      -1.06804800     -7.62615200      7.19793800
H      -0.17360700     -6.11505900      7.42403900
H      -2.80467400     -6.51689400      5.92985800
H      -1.25823700     -6.03161000      5.24171000
H      -4.00731500     -2.90240900     -9.79595100
H      -5.44590700     -1.18650300     -8.31009900
H      -0.53748900     -1.63950000      2.27963200
H       1.72585600     -2.23187700      1.17046300
H      -4.59945600      2.88473500      7.24525900
H      -5.35697100      1.92437000      4.92828900
H      -3.62306000     -2.84841300      9.76142300
H      -3.94491000     -1.28944100      9.04437500
H      -1.49258700     -0.73585100      9.17649900
H      -1.19715200     -2.29906600      9.93290100
H      -1.30080400     -0.62186900     11.66712500
H      -2.70862000     -1.68551900     11.81351700
H      -2.29032600      1.44173800     12.64877700
H      -3.51669900      2.29089300     11.68497900
H      -1.11711900      1.39096800     10.12307000
H      -0.76717700      2.58696800     11.35897400
H      -0.19718000      3.32577400      8.76625900
H      -0.46456700      4.60226500      9.94428300
H      -0.66992900      5.75131600      7.88828100
H      -2.34807500      5.46306600      8.36832300
H      -2.32635900      3.37087800      6.93300100
H      -0.72662900      3.82632100      6.34985400
H      -3.18165400      5.63859000      6.09328400
H      -2.72012300      4.45902400      4.86596000
H      -0.48088300      5.57610700      4.65101500
H      -0.99979000      6.80791100      5.80722100
H      -1.29145900      7.61042100      3.48460700
H      -2.86964500      7.45762800      4.27267600
H      -2.33798500      6.23186900      3.11062100
H      -5.04891800      1.47541700     -8.61035400
H      -3.80031400      0.55302900     -7.78221800
H      -3.20369500      2.53148300     -6.40056600
H      -4.35877500      3.51461500     -7.33582900
H      -1.56147100      4.70291800     -9.54369900
H      -1.24904300      3.39110900    -10.68782000
H      -3.41630200      5.52936600    -10.98631800
H      -3.08225700      4.26570000    -12.17001800
H      -0.96815000      5.20846600    -12.77173100
H      -0.89124700      6.20929800    -11.31937800
H      -3.00042400      6.60847200    -13.50060800
H      -1.44109600      7.44077600    -13.48025000
H      -1.96723200      8.33691100    -11.19611100
H      -3.56660600      7.60190400    -11.27774300
H      -4.01806300      8.96980600    -13.37704600
H      -2.47552400      9.79357000    -13.10547700
H      -4.88838500      9.73926500    -11.22412700
H      -4.33172600     11.11853300    -12.18629400
H      -4.05476300      8.29575800     -5.18326000
H       0.88161500      4.68533500     -1.45976100
H       0.22754800     11.62050500     -7.35984100
H       4.22876500      9.73601700     -3.17310900
H       3.86081800     14.37071100     -5.41768000
H       2.53747000     14.71800400     -4.30889300
H       3.99093600     14.37998500     -2.36782100
H       4.74690200     15.52188300     -3.49175100
H       6.43735200     13.87389700     -2.75391800
H       6.08459300     13.62199000     -4.47023700
H       5.09285500     12.01929100     -2.07164800
H       6.03682200     11.43531200     -3.43884300
H       3.02111400      4.99445000     -1.60775600
H       2.75449200      4.23307100     -3.16967600
H       5.06586800      4.22915500     -3.11104400
H       5.17370600      5.70681100     -2.14943600
H       4.38009000      5.61260500     -5.10428500
H       5.96057800      6.10966400     -4.46967000
H       4.56527200      8.11589100     -4.85375500
H       4.89956600      7.88324500     -3.13209500
H      -5.94522900      7.80214500     -3.52939500
H      -5.94332400      6.55579500     -4.77062800
H      -7.32961400      5.63965900     -3.10303000
H      -6.30674600      6.20534300     -1.77552200
H      -5.43728600      4.11672300     -3.83794300
H      -6.02987900      3.73334900     -2.21435500
H      -3.55161700      3.80648400     -2.29337100
H      -4.25420500      4.98055400     -1.16600000
H      -2.07489800     12.51471600    -11.15720900
H      -2.99803100      6.50467800     -6.43810700
H      -2.70708300      6.22624400     -8.15278100
H      -6.93306900      6.97642100     -9.38247800
H      -8.43740900      7.66072900     -8.74782900
H      -5.78782100      9.17228200     -9.04920600
H      -7.29877800      9.87624800     -8.44671100
H      -7.18631400      9.33296300    -10.12933400
H       0.79455700     13.93354300     -4.65554700
H      -0.11865800     12.72999000     -5.54118800
H       0.93972600     13.37494900     -7.64554400
H       2.23431100     14.23708000     -6.80042800
H       0.82600100     15.79616100     -9.04870200
H       2.09592500     16.32998100     -7.92006700
H       0.64050200     18.24405700     -7.21272300
H      -0.58317500     17.74831000     -8.39303500
H       1.05996700     18.09337800    -10.24577000
H       2.28549100     18.58616400     -9.07014800
H       0.84199700     20.50507200     -8.36372900
H      -0.38992400     20.01465200     -9.53418300
H      -2.51582800      4.72877800     -0.39182500
H      -0.82600300      4.71243100      0.05961700
H      -0.68274100      2.69891500     -1.70289300
H      -2.37257800      2.47287500     -1.21943100
H      -2.93993500      1.42515100      1.41069800
H      -2.80689100      3.19873900      1.40644500
H      -2.70167300      2.37887300      3.73408700
H      -1.15648400      3.09937900      3.25251900
H      -0.23608300      0.83663500      2.77907700
H      -1.77633500      0.10840300      3.22827400
H      -1.48738300      1.05504900      5.56691000
H       0.10012100      1.64374700      5.08608100
H      -1.13263400     -0.97632700      6.87394500
H       0.26709200     -0.00115100      7.24221700
H       1.73307200     -2.01313300      6.63416700
H       0.25442600     -2.94922600      6.39843000
H       0.66431200     -2.33476900      8.00692900
H       1.23881900     20.35433800    -11.40141000
H       2.48153700     20.85082400    -10.22343300
H      -8.58956400      2.35095700     -0.99617000
H       1.00955300     22.59294500     -9.67168600
H      -7.36481000      8.08718900     -6.55488200
H      -7.22853900      6.36396600     -7.01383800
H      -4.02509600      3.86282700     -9.50384500
H      -3.38994100      2.36466000    -10.23160900
C       7.69506300     -4.68239900      7.23666600
C       6.60362700     -4.10943700      7.97054900
C       5.95591600     -2.96569500      7.44704100
C       6.14015900     -2.61264400      6.08682300
C       7.04111900     -3.38313200      5.27485900
C       7.90817500     -4.34234000      5.92672900
C       7.09085300     -3.09170500      3.90818600
C       6.40658500     -1.97274700      3.35078400
C       5.57411700     -1.17062300      4.18932700
C       5.41782100     -1.51777800      5.55346300
C       4.89356900     -0.06449600      3.62887400
C       5.03141900      0.24680900      2.25548100
C       5.86734800     -0.55727100      1.42181200
C       6.53940700     -1.63755500      1.99947500
C       5.99299600     -0.23048500      0.03425800
C       5.12104000      0.68084200     -0.52164500
C       4.17124700      1.36369000      0.28494500
C       4.28097800      1.31061600      1.67993400
C       4.02838300      0.71953900      4.46006300
C       3.44269400      1.90375700      3.93412200
C       3.65846600      2.26417600      2.57884800
C       4.50874400     -0.77445600      6.37428900
C       3.83760800      0.35354600      5.80771300
C       4.30258200     -1.14543200      7.72068800
C       5.10209600     -2.18584000      8.28920500
C       5.13836300     -2.45018300      9.66696000
C       5.58972400     -3.67284800     10.15337400
C       6.16746300     -4.59348900      9.23763800
C       6.06345000     -5.97031400      9.58340000
C       5.61288600     -6.36397600     10.82665000
C       5.43843400     -5.44870600     11.91237400
C       5.41173300     -4.07252400     11.53855000
C       5.18282100     -3.11453400     12.52772200
C       5.01488800     -3.45449600     13.85676700
C       5.09218500     -4.80211400     14.24539900
C       5.29035700     -5.79504400     13.28245000
C       2.98911800      1.16509200      6.62743300
C       2.70565000      0.68932500      7.93806700
C       3.26353200     -0.47319600      8.45884900
C       2.70132500      2.76529000      4.81154200
C       2.45473700      2.34212800      6.13156200
C       3.37438800      3.59188800      2.21605700
C       2.66212400      4.43714000      3.11864500
C       2.26657200      4.03168800      4.37346300
C       8.72677400     -5.48086900      8.01163600
C       9.52321100     -6.42344700      7.11673200
C      10.15124500     -5.59415900      6.00331200
C       9.06962600     -4.92822800      5.15164600
C       5.19174000      1.00974000     -1.99747700
C       6.58601400      0.76423800     -2.56747800
C       6.97657600     -0.67985200     -2.28261200
C       7.06794000     -0.92142300     -0.77591100
C       4.95075600     -5.16158500     15.71036000
C       5.14001000     -3.97437200     16.65475100
C       4.27948500     -2.80371300     16.19129800
C       4.79077600     -2.32555300     14.83557800
N       2.53683600      5.66723000      2.52333000
C       3.20853600      5.65983600      1.32804300
C       3.72476300      4.41752400      1.10139200
C       2.62999800     -0.82795800      9.69539300
C       1.71233000      0.08221500     10.09868200
S       1.53252700      1.39838200      8.99915200
S       5.15049400     -8.10478300     10.81020600
C       5.61703800     -8.21860200      9.08553700
C       6.10264100     -7.06978500      8.61994900
H       2.13041700      6.48314200      2.94706200
O       3.63320000     -8.10608800     10.84487700
C       5.38750000     -7.23865900     13.72600700
C       4.00282600     -7.85215400     13.98664300
C       4.07130100     -9.32884100     14.41715700
C       4.53153200    -10.24747800     13.30307300
C       3.52944600    -11.28189900     12.82755600
C       2.31467400    -10.65176000     12.12603600
C       2.38097000    -10.75956200     10.60871500
C       1.31412900     -9.95787900      9.89450200
C       1.18418800    -10.30520700      8.40736900
C       2.33457200     -9.72827000      7.57612500
C       2.20725800    -10.04521500      6.08092400
C       1.09644000     -9.24533600      5.39135900
C       1.02079200     -9.56133600      3.89834800
C       2.94980500      1.94269700     -0.37707500
C       2.04270600      0.76395100     -0.80356400
C       0.39935100      1.13319000     -4.08360100
C       0.87216300      1.05529300     -5.53464000
C      -0.31054000      0.97335800     -6.50378900
C       0.12144900      0.73064200     -7.95395900
C       0.71952600     -0.66632100     -8.13507000
C       1.05574200     -0.98192200     -9.59481400
C       1.85766500     -2.29269300     -9.71067500
C       3.79649900     -5.55173000     -1.96003500
C       2.88840600     -5.54870500     -3.01620600
C       1.51763900     -5.57749200     -2.79107600
C       1.06070200     -5.75413300     -1.45765900
C       1.96707400     -5.68140100     -0.35155300
C       3.35481900     -5.53091400     -0.63704500
C       1.36996300     -5.78995000      0.96322400
C       0.00822000     -5.84816900      1.10297500
C      -0.89511700     -5.94289800      0.01602600
C      -0.33038800     -5.99277100     -1.27143300
C       0.57897100     -5.57330400     -3.90078200
C      -0.63922600     -6.25209700     -3.69950600
C      -1.14675500     -6.35821300     -2.36716100
C      -2.50612200     -6.66940900     -2.16819900
C      -3.10271400     -6.29141100     -0.93460200
C      -2.30668200     -5.96854700      0.15223300
C      -1.43834000     -6.69941000     -4.79167400
C      -2.58678000     -7.55240600     -4.50214700
C      -3.17806700     -7.42397900     -3.21909500
C      -1.07449500     -6.28946400     -6.05918100
C       0.00147500     -5.41032400     -6.25035300
C       0.82854100     -4.96950400     -5.17350000
C       1.66550100     -3.82380300     -5.42325600
N       1.85396600     -3.28208700     -6.60799600
C       1.20505700     -3.81678100     -7.66765300
C       0.27362500     -4.83449600     -7.50404600
C      -4.31164800     -8.19236000     -2.94167400
C      -4.88646000     -9.03495200     -3.87846600
C      -4.25095500     -9.23680500     -5.10795000
C      -3.08116000     -8.52426600     -5.40154600
C      -4.82563500    -10.22244000     -6.10334800
C      -5.85207100    -11.18090200     -5.49767800
C      -6.86409800    -10.40284600     -4.66229700
C      -6.14329600     -9.77096600     -3.47457400
C      -2.89052500     -5.63561800      1.50713200
C      -4.38092500     -5.25929500      1.51379900
C      -4.87579900     -4.90636200      0.11542900
C      -4.59640500     -6.09383200     -0.80876700
C       5.25705000     -5.54138700     -2.35700600
C       6.21279400     -5.74417600     -1.18747300
C       5.74503500     -4.85942000     -0.03998600
C       4.38339400     -5.34274500      0.45707700
O      -0.36625500     -5.07757500     -8.67930700
C       0.18002800     -4.22341000     -9.60036500
C       1.13450100     -3.42514300     -9.04972600
C       2.18961600     -2.95106900     -4.30376400
C       3.63418500     -2.52895500     -4.46530300
C       5.91608100     -2.23513500     -6.44384100
C       5.24047900     -2.79979600     -7.69106800
C      -2.27796700     -8.92494100     -6.62403000
C      -2.85601800     -8.41882900     -7.95176700
S      -1.46597900     -8.21814600     -9.12960000
C      -2.45453200     -7.89302100    -10.63807400
C      -1.54754100     -8.04083800    -11.85473600
C      -2.32814600     -7.80422900    -13.15264400
C      -1.42487200     -7.96361100    -14.37897200
C       2.08513500     -5.84306000      2.30269900
C       2.07091000     -4.47005600      2.97818100
S       1.81946900     -4.56008100      4.79141500
C       3.51412200     -5.01739700      5.32551000
C       3.42598000     -5.74999000      6.65819600
C       2.71990900     -4.92108400      7.73049500
C       2.56548800     -5.69470400      9.03642700
C       1.77418900     -4.92454900     10.06825300
C       1.79585800     -5.52916300     11.45354400
C       0.97247500     -4.72046100     12.45026800
O       1.01104900     -5.80990900      5.00271600
C      -2.20907600     -7.73627500    -15.67887200
O      -0.92591700     -9.60632800     -9.31515000
O       7.80347600     -3.90309000      3.08498100
O      -1.36445500     -7.83060600    -16.81046900
O       3.18473500    -11.45579100     10.04018000
O       1.17127900     -3.90673300      9.81020200
O       5.64995500    -10.19188700     12.84787600
O       4.03271400     -1.43668700     -4.12784400
O       4.39900700     -3.48553300     -4.97502900
C       5.77892700     -3.18503900     -5.25445200
O       1.10059200      1.11390900     -1.79883800
C       1.59338600      1.12911200     -3.13045500
H       7.18059400     -2.24584700      1.37221300
H       4.74924700     -1.71267400     10.35224300
H       5.16588800     -2.06350300     12.26336200
H       1.86183600      2.97532900      6.78389700
H       1.70336200      4.67889800      5.03511400
H       9.41740800     -4.75957900      8.46914100
H       8.27330900     -6.03674200      8.83270800
H       8.86691300     -7.19159100      6.69447300
H      10.29944100     -6.92226600      7.70400100
H      10.76978200     -6.22463800      5.35799200
H      10.80066500     -4.83072700      6.44507600
H       8.66841400     -5.66820000      4.44970900
H       9.54408800     -4.14427300      4.55598300
H       4.47280700      0.39489300     -2.54911600
H       4.92025800      2.05644200     -2.15884600
H       7.30743600      1.44923900     -2.10993100
H       6.57788900      0.94870300     -3.64556100
H       7.93851900     -0.91935500     -2.74412800
H       6.21946800     -1.34208300     -2.71513200
H       8.04289700     -0.57558700     -0.41042500
H       7.03001600     -2.00157000     -0.60395100
H       3.95069100     -5.57879200     15.87600700
H       5.67173700     -5.93809800     15.98239500
H       6.19296600     -3.67380500     16.67349600
H       4.85769500     -4.27778900     17.66685500
H       4.33035400     -1.98314500     16.91222200
H       3.23429500     -3.12025400     16.11036300
H       5.74180200     -1.79689500     14.97558800
H       4.08718700     -1.60800800     14.40089000
H       3.26841700      6.55615900      0.72991000
H       4.33334200      4.13396600      0.25976000
H       2.78956700     -1.75232700     10.22717600
H       1.11629500      0.04653200     10.99545300
H       5.53332000     -9.16468000      8.57713900
H       6.45749800     -6.92937800      7.60800300
H       5.98167900     -7.30740100     14.64196700
H       5.91256400     -7.82926000     12.97544200
H       3.38431300     -7.76003200     13.09200300
H       3.50183100     -7.30226700     14.78640800
H       3.09105200     -9.63627300     14.78562000
H       4.79142200     -9.42801900     15.23474500
H       3.19386000    -11.84300700     13.70204700
H       4.03322100    -11.97051000     12.14265000
H       2.19266400     -9.60175900     12.39607900
H       1.39993000    -11.16752400     12.43050800
H       1.57392800     -8.90213000     10.01759800
H       0.36152000    -10.11362400     10.40725800
H       0.23029900     -9.91022700      8.04631900
H       1.15934700    -11.39393200      8.29317800
H       3.27812900    -10.14356600      7.94227800
H       2.37446500     -8.64242600      7.71606600
H       2.02435900    -11.11755500      5.94973900
H       3.16236300     -9.81417800      5.59604700
H       1.28423800     -8.17474700      5.52181000
H       0.13039900     -9.47277600      5.85356400
H       0.22970200     -8.97315500      3.43124200
H       0.80548600    -10.61918500      3.73814800
H       1.96584100     -9.32354800      3.40702900
H       3.19572300      2.53376400     -1.25861900
H       2.38236500      2.57113500      0.30450900
H       1.46368400      0.42958500      0.06619400
H       2.65185300     -0.08537300     -1.14899700
H      -0.23629800      0.27310900     -3.85221000
H      -0.19275700      2.03937300     -3.92420700
H       1.50720500      0.17057700     -5.64560300
H       1.48469100      1.93206500     -5.77203400
H      -0.87792200      1.90795400     -6.45717800
H      -0.97796400      0.16388200     -6.19025600
H       0.84851100      1.49115400     -8.25851800
H      -0.75854800      0.83751800     -8.59664200
H       0.00679300     -1.40871600     -7.76326900
H       1.63056800     -0.76482700     -7.53636300
H       1.65329400     -0.17242400    -10.02566200
H       0.13323200     -1.06648800    -10.17863400
H       2.83253600     -2.15628300     -9.23507900
H       2.02242900     -2.51815700    -10.76829500
H       3.26459400     -5.52820200     -4.03332900
H      -0.39609000     -5.89611200      2.10822800
H      -1.66708200     -6.52202100     -6.93036700
H      -4.74507100     -8.18309400     -1.95184000
H      -5.30694700     -9.65479300     -6.90875200
H      -4.02767800    -10.81547600     -6.55998800
H      -5.34632500    -11.92025100     -4.86738500
H      -6.35799900    -11.71681300     -6.30584100
H      -7.65191000    -11.06980700     -4.30102800
H      -7.33253000     -9.62587500     -5.27562000
H      -5.87243900    -10.55576100     -2.75726800
H      -6.81389300     -9.07914200     -2.95468100
H      -2.73671600     -6.49239400      2.17320800
H      -2.31588600     -4.80430900      1.92720400
H      -4.53526200     -4.41318100      2.19008900
H      -4.97294500     -6.09776700      1.89434900
H      -4.36556200     -4.01249100     -0.25772000
H      -5.94974000     -4.70264900      0.14180400
H      -5.03251600     -5.91092400     -1.79447800
H      -5.08185700     -6.97761400     -0.38150300
H       5.42205300     -6.31347400     -3.11576800
H       5.47552300     -4.57741300     -2.82935300
H       7.22844600     -5.47738200     -1.49087800
H       6.21574500     -6.79239800     -0.87172400
H       5.67484400     -3.82122600     -0.38012500
H       6.45613800     -4.89591800      0.79077000
H       4.01504000     -4.61221500      1.18047400
H       4.53868700     -6.29458500      0.97738700
H      -0.21153400     -4.29523200    -10.60236200
H       2.08991600     -3.41959300     -3.32815400
H       1.60259300     -2.03046300     -4.28864000
H       5.47324800     -1.26915900     -6.18617500
H       6.98324300     -2.08124900     -6.62626800
H       4.18164000     -2.97393900     -7.49182800
H       5.69941200     -3.74514900     -7.98437100
H       5.33288000     -2.09602900     -8.51809200
H      -2.21775500    -10.01638900     -6.67462900
H      -1.25022600     -8.57096000     -6.51546000
H      -3.32853900     -7.44234800     -7.85258400
H      -3.57779800     -9.12075600     -8.36667500
H      -2.83664200     -6.87636000    -10.54224500
H      -3.29061300     -8.59175900    -10.68714000
H      -1.12110700     -9.04921900    -11.85768600
H      -0.72127400     -7.32621900    -11.78624100
H      -2.75703800     -6.79647200    -13.14133100
H      -3.15734700     -8.51716200    -13.21335200
H      -0.99257400     -8.96933300    -14.39464800
H      -0.59960600     -7.24591600    -14.33342400
H       3.09201000     -6.24688400      2.25425600
H       1.51315000     -6.52410100      2.94163100
H       1.21505700     -3.89270400      2.62822500
H       2.97806000     -3.89304200      2.80509800
H       4.06076200     -4.07872500      5.41815000
H       3.99619800     -5.64456700      4.57583000
H       4.43877000     -5.99896300      6.98580800
H       2.88204800     -6.68627800      6.50578000
H       1.72776400     -4.63906100      7.37348200
H       3.27914600     -4.00106600      7.91892400
H       3.53527700     -5.94821100      9.46314600
H       2.04280400     -6.64064200      8.86732900
H       2.84026300     -5.58934500     11.77051400
H       1.43438600     -6.55876000     11.38458300
H      -0.07877300     -4.71821700     12.16119300
H       1.32198900     -3.68798400     12.47811600
H       1.06160000     -5.14885600     13.44751000
H      -2.63584300     -6.72571400    -15.68812800
H      -3.03583500     -8.46190500    -15.75041600
H       7.82554500     -3.58023500      2.17293400
H      -0.98304200     -8.71685100    -16.85445200
H       6.24630200     -4.15068800     -5.46820100
H       6.23970400     -2.74789900     -4.36153100
H       2.21202200      0.23552800     -3.31427900
H       2.22013400      2.01823400     -3.30704400
